final/output/output_voltage_566.csv
# output/output_voltage_566.csv run at 2019-09-30 09:26:00 GMT on 1884 powerflow objects (not all are nodes)
node_name,voltA_mag,voltA_angle,voltB_mag,voltB_angle,voltC_mag,voltC_angle
SourceBus,6668.395609,0.000000,6668.395609,4.188790,6668.395609,2.094395
Bus1,251.760822,-0.528946,251.784375,3.660118,251.890137,1.566047
Bus2,251.699212,-0.528915,251.722249,3.660099,251.844999,1.566028
Bus3,251.692753,-0.528912,251.715736,3.660097,251.840267,1.566026
Bus4,251.686702,-0.528909,251.709634,3.660095,251.835834,1.566024
Bus5,251.681427,-0.528907,251.704314,3.660094,251.831968,1.566022
Bus6,251.673116,-0.528903,251.695933,3.660091,251.825879,1.566019
Bus7,251.107179,-0.528623,251.125239,3.659921,251.411245,1.565839
Bus8,251.081832,-0.528610,251.099679,3.659913,251.392674,1.565831
Bus9,251.060735,-0.528600,251.078405,3.659907,251.377218,1.565824
Bus10,251.042221,-0.528591,251.059735,3.659901,251.363653,1.565819
Bus11,251.028406,-0.528584,251.045803,3.659897,251.353531,1.565814
Bus12,251.015437,-0.528577,251.032725,3.659893,251.344030,1.565810
Bus13,251.007463,-0.528573,251.024683,3.659891,251.338187,1.565807
Bus14,250.987609,-0.528564,251.004663,3.659885,251.323641,1.565801
Bus15,250.826782,-0.528484,250.842481,3.659836,251.205809,1.565750
Bus16,250.826782,-0.528484,250.842481,3.659836,251.205809,1.565750
Bus17,250.631753,-0.528387,250.645808,3.659777,251.062919,1.565687
Bus18,250.826782,-0.528484,250.842481,3.659836,251.205809,1.565750
Bus19,250.618334,-0.528380,250.632275,3.659773,251.053087,1.565683
Bus20,250.826782,-0.528484,250.842481,3.659836,251.205809,1.565750
Bus21,250.603266,-0.528373,250.617080,3.659769,251.042047,1.565678
Bus22,250.826782,-0.528484,250.842481,3.659836,251.205809,1.565750
Bus23,250.578732,-0.528360,250.592339,3.659761,251.024072,1.565670
Bus24,250.826782,-0.528484,250.842481,3.659836,251.205809,1.565750
Bus25,250.534100,-0.528338,250.547330,3.659748,250.991371,1.565656
Bus26,250.826782,-0.528484,250.842481,3.659836,251.205809,1.565750
Bus27,250.482616,-0.528270,250.531561,3.659723,250.976260,1.565635
Bus28,250.026764,-0.528144,249.995674,3.659682,250.571814,1.565460
Bus29,250.826782,-0.528484,250.842481,3.659836,251.205809,1.565750
Bus30,250.475514,-0.528260,250.529395,3.659719,250.974185,1.565632
Bus31,250.475720,-0.528260,250.529440,3.659719,250.974227,1.565632
Bus32,249.891705,-0.528092,249.848814,3.659665,250.460123,1.565408
Bus33,250.826782,-0.528484,250.842481,3.659836,251.205809,1.565750
Bus34,250.459249,-0.528238,250.524434,3.659711,250.969432,1.565625
Bus35,250.475486,-0.528260,250.529368,3.659719,250.974158,1.565632
Bus36,249.876863,-0.528113,249.798895,3.659731,250.444707,1.565384
Bus37,249.475640,-0.527948,249.446500,3.659544,250.132411,1.565333
Bus38,250.826782,-0.528484,250.842481,3.659836,251.205809,1.565750
Bus39,250.475150,-0.528260,250.529265,3.659719,250.974059,1.565632
Bus40,249.876349,-0.528114,249.797142,3.659733,250.444172,1.565383
Bus41,249.874502,-0.528116,249.791065,3.659741,250.442256,1.565380
Bus42,249.186922,-0.527848,249.167322,3.659460,249.905002,1.565281
Bus43,249.475640,-0.527948,249.446500,3.659544,250.132411,1.565333
Bus44,250.826782,-0.528484,250.842481,3.659836,251.205809,1.565750
Bus45,250.474720,-0.528259,250.529132,3.659719,250.973932,1.565631
Bus46,249.876118,-0.528114,249.796351,3.659734,250.443932,1.565383
Bus47,249.868821,-0.528124,249.772226,3.659766,250.436359,1.565371
Bus48,248.968751,-0.527772,248.956361,3.659397,249.733159,1.565242
Bus49,249.475640,-0.527948,249.446500,3.659544,250.132411,1.565333
Bus50,250.826782,-0.528484,250.842481,3.659836,251.205809,1.565750
Bus51,250.473671,-0.528258,250.528810,3.659718,250.973623,1.565631
Bus52,249.875872,-0.528114,249.795514,3.659736,250.443676,1.565382
Bus53,248.937296,-0.527761,248.925945,3.659388,249.708383,1.565236
Bus54,248.968751,-0.527772,248.956361,3.659397,249.733159,1.565242
Bus55,249.475640,-0.527948,249.446500,3.659544,250.132411,1.565333
Bus56,250.826782,-0.528484,250.842481,3.659836,251.205809,1.565750
Bus57,250.472773,-0.528257,250.528534,3.659718,250.973358,1.565631
Bus58,249.875639,-0.528115,249.794716,3.659737,250.443433,1.565382
Bus59,248.794810,-0.527711,248.788167,3.659346,249.596153,1.565210
Bus60,248.968751,-0.527772,248.956361,3.659397,249.733159,1.565242
Bus61,249.475640,-0.527948,249.446500,3.659544,250.132411,1.565333
Bus62,250.826782,-0.528484,250.842481,3.659836,251.205809,1.565750
Bus63,250.468468,-0.528251,250.527210,3.659716,250.972089,1.565629
Bus64,249.875499,-0.528115,249.794239,3.659737,250.443288,1.565382
Bus65,248.768794,-0.527706,248.760856,3.659343,249.572778,1.565204
Bus66,248.721923,-0.527613,248.765926,3.659311,249.574877,1.565180
Bus67,248.968751,-0.527772,248.956361,3.659397,249.733159,1.565242
Bus68,249.475640,-0.527948,249.446500,3.659544,250.132411,1.565333
Bus69,250.826782,-0.528484,250.842481,3.659836,251.205809,1.565750
Bus70,250.453253,-0.528231,250.522530,3.659708,250.967603,1.565622
Bus71,249.875224,-0.528115,249.793302,3.659738,250.443002,1.565381
Bus72,248.461419,-0.527644,248.438187,3.659314,249.296608,1.565131
Bus73,248.704120,-0.527589,248.760486,3.659302,249.569673,1.565173
Bus74,248.704101,-0.527589,248.760495,3.659302,249.569682,1.565173
Bus75,248.968751,-0.527772,248.956361,3.659397,249.733159,1.565242
Bus76,249.475640,-0.527948,249.446500,3.659544,250.132411,1.565333
Bus77,250.826782,-0.528484,250.842481,3.659836,251.205809,1.565750
Bus78,249.873832,-0.528117,249.788552,3.659745,250.441555,1.565379
Bus79,248.354276,-0.527622,248.325712,3.659303,249.200343,1.565105
Bus80,248.968751,-0.527772,248.956361,3.659397,249.733159,1.565242
Bus81,249.475640,-0.527948,249.446500,3.659544,250.132411,1.565333
Bus82,250.826782,-0.528484,250.842481,3.659836,251.205809,1.565750
Bus83,249.868585,-0.528125,249.770654,3.659769,250.436102,1.565370
Bus84,248.330894,-0.527617,248.301167,3.659301,249.179335,1.565100
Bus85,248.968751,-0.527772,248.956361,3.659397,249.733159,1.565242
Bus86,249.475640,-0.527948,249.446500,3.659544,250.132411,1.565333
Bus87,250.826782,-0.528484,250.842481,3.659836,251.205809,1.565750
Bus88,248.283479,-0.527608,248.251392,3.659297,249.136733,1.565088
Bus89,248.968751,-0.527772,248.956361,3.659397,249.733159,1.565242
Bus90,249.475640,-0.527948,249.446500,3.659544,250.132411,1.565333
Bus91,250.826782,-0.528484,250.842481,3.659836,251.205809,1.565750
Bus92,248.238764,-0.527599,248.204453,3.659292,249.096558,1.565078
Bus93,249.475640,-0.527948,249.446500,3.659544,250.132411,1.565333
Bus94,250.826782,-0.528484,250.842481,3.659836,251.205809,1.565750
Bus95,248.212774,-0.527593,248.177169,3.659290,249.073207,1.565071
Bus96,249.475640,-0.527948,249.446500,3.659544,250.132411,1.565333
Bus97,250.826782,-0.528484,250.842481,3.659836,251.205809,1.565750
Bus98,248.195610,-0.527590,248.159151,3.659288,249.057785,1.565067
Bus99,249.475640,-0.527948,249.446500,3.659544,250.132411,1.565333
Bus100,250.826782,-0.528484,250.842481,3.659836,251.205809,1.565750
Bus101,248.171911,-0.527585,248.134272,3.659286,249.036492,1.565062
Bus102,249.475640,-0.527948,249.446500,3.659544,250.132411,1.565333
Bus103,250.826782,-0.528484,250.842481,3.659836,251.205809,1.565750
Bus104,248.171788,-0.527586,248.133768,3.659285,249.036078,1.565060
Bus105,248.157049,-0.527581,248.120416,3.659281,249.024674,1.565060
Bus106,249.475640,-0.527948,249.446500,3.659544,250.132411,1.565333
Bus107,248.171640,-0.527587,248.133158,3.659285,249.035576,1.565059
Bus108,248.148622,-0.527578,248.112559,3.659278,249.017973,1.565059
Bus109,249.475640,-0.527948,249.446500,3.659544,250.132411,1.565333
Bus110,248.171468,-0.527588,248.132451,3.659285,249.034995,1.565057
Bus111,247.816113,-0.527479,247.802544,3.659172,248.753562,1.565025
Bus112,249.475640,-0.527948,249.446500,3.659544,250.132411,1.565333
Bus113,248.171205,-0.527590,248.131372,3.659284,249.034109,1.565055
Bus114,247.782803,-0.527469,247.771487,3.659161,248.727074,1.565022
Bus115,249.475640,-0.527948,249.446500,3.659544,250.132411,1.565333
Bus116,248.170868,-0.527592,248.129986,3.659283,249.032970,1.565052
Bus117,247.782170,-0.527472,247.770273,3.659160,248.725590,1.565019
Bus118,247.687993,-0.527463,247.688628,3.659083,248.661356,1.564983
Bus119,249.475640,-0.527948,249.446500,3.659544,250.132411,1.565333
Bus120,248.170626,-0.527593,248.128991,3.659282,249.032152,1.565049
Bus121,247.782170,-0.527472,247.770273,3.659160,248.725590,1.565019
Bus122,247.781861,-0.527473,247.769681,3.659159,248.724868,1.565018
Bus123,247.517014,-0.527453,247.539205,3.658942,248.542843,1.564912
Bus124,249.475640,-0.527948,249.446500,3.659544,250.132411,1.565333
Bus125,248.170284,-0.527596,248.127585,3.659281,249.030996,1.565046
Bus126,247.782170,-0.527472,247.770273,3.659160,248.725590,1.565019
Bus127,247.780411,-0.527480,247.766904,3.659156,248.721473,1.565011
Bus128,247.440125,-0.527449,247.472012,3.658878,248.489548,1.564880
Bus129,249.475640,-0.527948,249.446500,3.659544,250.132411,1.565333
Bus130,248.169914,-0.527598,248.126063,3.659280,249.029746,1.565043
Bus131,247.782170,-0.527472,247.770273,3.659160,248.725590,1.565019
Bus132,247.763566,-0.527458,247.761671,3.659148,248.716466,1.565004
Bus133,247.780787,-0.527501,247.759771,3.659157,248.710913,1.564992
Bus134,247.417248,-0.527447,247.452020,3.658859,248.473691,1.564871
Bus135,249.475640,-0.527948,249.446500,3.659544,250.132411,1.565333
Bus136,248.169565,-0.527600,248.124628,3.659280,249.028567,1.565039
Bus137,247.782170,-0.527472,247.770273,3.659160,248.725590,1.565019
Bus138,247.762116,-0.527456,247.761221,3.659147,248.716035,1.565003
Bus139,247.781066,-0.527516,247.754466,3.659158,248.703057,1.564979
Bus140,247.391425,-0.527446,247.429453,3.658838,248.455792,1.564860
Bus141,249.475640,-0.527948,249.446500,3.659544,250.132411,1.565333
Bus142,248.168991,-0.527604,248.122269,3.659278,249.026629,1.565034
Bus143,247.782170,-0.527472,247.770273,3.659160,248.725590,1.565019
Bus144,247.760692,-0.527454,247.760779,3.659146,248.715612,1.565003
Bus145,247.781253,-0.527527,247.750912,3.659158,248.697795,1.564969
Bus146,247.367139,-0.527444,247.408230,3.658818,248.438958,1.564850
Bus147,249.475640,-0.527948,249.446500,3.659544,250.132411,1.565333
Bus148,248.166263,-0.527622,248.111052,3.659271,249.017412,1.565008
Bus149,247.782170,-0.527472,247.770273,3.659160,248.725590,1.565019
Bus150,247.759543,-0.527452,247.760422,3.659146,248.715270,1.565002
Bus151,247.780504,-0.527537,247.751861,3.659158,248.693287,1.564970
Bus152,247.767838,-0.527546,247.705466,3.659219,248.683873,1.564947
Bus153,247.338802,-0.527443,247.383466,3.658794,248.419317,1.564838
Bus154,249.475640,-0.527948,249.446500,3.659544,250.132411,1.565333
Bus155,248.165669,-0.527626,248.108608,3.659269,249.015404,1.565002
Bus156,247.782170,-0.527472,247.770273,3.659160,248.725590,1.565019
Bus157,247.757818,-0.527450,247.759886,3.659145,248.714757,1.565002
Bus158,247.778517,-0.527563,247.754376,3.659157,248.681330,1.564972
Bus159,247.767021,-0.527547,247.702700,3.659223,248.683026,1.564946
Bus160,247.330648,-0.527442,247.376341,3.658787,248.413665,1.564835
Bus161,249.475640,-0.527948,249.446500,3.659544,250.132411,1.565333
Bus162,248.150166,-0.527648,248.057145,3.659337,248.999328,1.564977
Bus163,248.162756,-0.527640,248.102645,3.659263,249.008365,1.564988
Bus164,247.782170,-0.527472,247.770273,3.659160,248.725590,1.565019
Bus165,247.755738,-0.527447,247.759240,3.659144,248.714139,1.565001
Bus166,247.777827,-0.527573,247.755249,3.659157,248.677176,1.564973
Bus167,247.766275,-0.527548,247.700173,3.659227,248.682251,1.564945
Bus168,247.284324,-0.527440,247.335860,3.658749,248.381556,1.564816
Bus169,249.475640,-0.527948,249.446500,3.659544,250.132411,1.565333
Bus170,248.147237,-0.527652,248.047423,3.659350,248.996292,1.564972
Bus171,248.158888,-0.527660,248.094727,3.659254,248.999020,1.564969
Bus172,247.782170,-0.527472,247.770273,3.659160,248.725590,1.565019
Bus173,247.754167,-0.527445,247.758752,3.659143,248.713672,1.565000
Bus174,247.777827,-0.527573,247.755249,3.659157,248.677176,1.564973
Bus175,247.766454,-0.527591,247.744327,3.659141,248.639917,1.565023
Bus176,247.765965,-0.527548,247.699124,3.659228,248.681930,1.564944
Bus177,247.258160,-0.527438,247.312996,3.658727,248.363421,1.564805
Bus178,248.141194,-0.527660,248.027364,3.659377,248.990026,1.564962
Bus179,248.158484,-0.527660,248.093085,3.659253,248.998927,1.564966
Bus180,248.152317,-0.527670,248.088413,3.659245,248.977667,1.564998
Bus181,247.782170,-0.527472,247.770273,3.659160,248.725590,1.565019
Bus182,247.752349,-0.527443,247.758187,3.659142,248.713132,1.564999
Bus183,247.777827,-0.527573,247.755249,3.659157,248.677176,1.564973
Bus184,247.765226,-0.527593,247.743148,3.659140,248.635893,1.565029
Bus185,247.765297,-0.527549,247.696861,3.659231,248.681237,1.564943
Bus186,247.238738,-0.527437,247.296023,3.658711,248.349959,1.564797
Bus187,248.156896,-0.527659,248.086623,3.659247,248.998561,1.564952
Bus188,248.125124,-0.527713,248.062281,3.659208,248.889294,1.565116
Bus189,247.782170,-0.527472,247.770273,3.659160,248.725590,1.565019
Bus190,247.750639,-0.527440,247.757656,3.659141,248.712624,1.564999
Bus191,247.777827,-0.527573,247.755249,3.659157,248.677176,1.564973
Bus192,247.777827,-0.527573,247.755249,3.659157,248.677176,1.564973
Bus193,247.764038,-0.527595,247.742006,3.659138,248.632001,1.565034
Bus194,247.763596,-0.527552,247.691098,3.659239,248.679471,1.564940
Bus195,247.221276,-0.527436,247.280764,3.658697,248.337856,1.564790
Bus196,248.154061,-0.527659,248.075085,3.659238,248.997908,1.564928
Bus197,248.122474,-0.527717,248.059735,3.659204,248.880643,1.565128
Bus198,248.123584,-0.527715,248.060801,3.659206,248.884312,1.565123
Bus199,247.782170,-0.527472,247.770273,3.659160,248.725590,1.565019
Bus200,247.748800,-0.527438,247.757085,3.659141,248.712077,1.564998
...
SourceBus_1,6664.465682,-0.001284,6664.955102,4.187601,6665.253344,2.093095
LOAD1,250.459249,-0.528238,250.524434,3.659711,250.969432,1.565625
LOAD2,249.868821,-0.528124,249.772226,3.659766,250.436359,1.565371
LOAD3,250.453253,-0.528231,250.522530,3.659708,250.967603,1.565622
LOAD4,248.704120,-0.527589,248.760486,3.659302,249.569673,1.565173
LOAD5,248.704101,-0.527589,248.760495,3.659302,249.569682,1.565173
LOAD6,249.868585,-0.528125,249.770654,3.659769,250.436102,1.565370
LOAD7,248.141194,-0.527660,248.027364,3.659377,248.990026,1.564962
LOAD8,248.115773,-0.527728,248.053297,3.659195,248.858771,1.565158
LOAD9,248.073181,-0.527551,248.049716,3.659198,248.973612,1.564894
LOAD10,248.114652,-0.527719,247.919691,3.659441,248.953258,1.564838
LOAD11,248.114606,-0.527719,247.919787,3.659441,248.953215,1.564838
LOAD12,248.113923,-0.527730,248.051514,3.659193,248.853052,1.565165
LOAD13,247.742994,-0.527581,247.621404,3.659333,248.658092,1.564907
LOAD14,247.717165,-0.527395,247.747259,3.659125,248.702673,1.564984
LOAD15,247.745746,-0.527577,247.630563,3.659321,248.660945,1.564911
LOAD16,247.740047,-0.527633,247.718965,3.659105,248.553433,1.565140
LOAD17,247.745183,-0.527624,247.723899,3.659112,248.570220,1.565118
LOAD18,246.515703,-0.527069,246.646425,3.658111,247.909898,1.564539
LOAD19,246.932231,-0.527462,247.021822,3.658455,248.080535,1.564759
LOAD20,246.583938,-0.527081,246.779528,3.658182,247.999504,1.564515
LOAD21,246.987186,-0.527338,247.112788,3.658525,248.201392,1.564693
LOAD22,246.568909,-0.527060,246.775064,3.658175,247.995249,1.564509
LOAD23,246.427140,-0.526929,246.498947,3.658168,247.926767,1.564341
LOAD24,246.715335,-0.527525,246.801059,3.658330,247.864049,1.564684
LOAD25,245.681008,-0.525740,245.967467,3.657365,247.798573,1.563930
LOAD26,246.349165,-0.527482,246.289808,3.658295,247.610507,1.564094
LOAD27,246.618841,-0.527575,246.688838,3.658294,247.747802,1.564642
LOAD28,246.613080,-0.527584,246.683304,3.658286,247.729056,1.564668
LOAD29,245.601537,-0.525635,245.817861,3.657414,247.737406,1.563761
LOAD30,245.686006,-0.525746,245.969052,3.657368,247.800086,1.563932
LOAD31,245.602727,-0.525637,245.818271,3.657415,247.737798,1.563762
LOAD32,246.253571,-0.527483,246.225844,3.658142,247.496285,1.564138
LOAD33,245.716985,-0.525915,245.718171,3.657679,247.621003,1.563734
LOAD34,245.873183,-0.526028,246.124606,3.657504,247.847315,1.564063
LOAD35,245.718912,-0.525904,245.629808,3.657863,247.656307,1.563553
LOAD36,245.694266,-0.525907,245.608453,3.657860,247.666568,1.563583
LOAD37,245.693541,-0.525909,245.605049,3.657865,247.665802,1.563581
LOAD38,246.150310,-0.527435,246.076434,3.658166,247.479269,1.563939
LOAD39,246.041087,-0.527472,245.996082,3.657998,247.309224,1.564023
LOAD40,245.990625,-0.527403,245.858812,3.658114,247.348858,1.563731
LOAD41,245.791790,-0.527298,245.486348,3.658306,247.158860,1.563414
LOAD42,246.039831,-0.527474,245.994874,3.657997,247.305255,1.564029
LOAD43,245.688712,-0.527309,245.477975,3.658062,246.971680,1.563640
LOAD44,246.308457,-0.527487,246.228122,3.658307,247.577504,1.564052
LOAD45,245.793209,-0.527297,245.490788,3.658301,247.160324,1.563416
LOAD46,245.889516,-0.527062,246.034601,3.657930,247.408166,1.563851
LOAD47,245.690616,-0.527306,245.479795,3.658065,246.978514,1.563630
LOAD48,245.900471,-0.527077,246.037712,3.657935,247.411122,1.563855
LOAD49,245.879571,-0.527049,246.031224,3.657925,247.404924,1.563846
LOAD50,245.610933,-0.527065,245.164841,3.658387,247.031508,1.563065
LOAD51,245.776095,-0.527095,245.756103,3.657927,247.270212,1.563605
LOAD52,245.509191,-0.526862,245.341139,3.658013,247.053134,1.563228
LOAD53,245.608427,-0.527069,245.155434,3.658402,247.029014,1.563061
LOAD54,245.747395,-0.527056,245.747183,3.657913,247.261695,1.563593
LOAD55,245.506952,-0.526852,245.340510,3.658008,247.054150,1.563231
